Ni(CO)3[syn-BImNEt2] -2385.55511226
 OpenBabel06182400473D

 34 35  0  0  0  0  0  0  0  0999 V2000
    3.3507    3.4247   10.7133 Ni  0  0  0  0  0  0  0  0  0  0  0  0
    1.6878    3.1559   13.1228 O   0  0  0  0  0  1  0  0  0  0  0  0
    3.1077    1.0048    9.0606 O   0  0  0  0  0  1  0  0  0  0  0  0
    6.2115    3.4753   11.3921 O   0  0  0  0  0  1  0  0  0  0  0  0
    3.1148    6.3706   10.1623 N   0  0  0  0  0  0  0  0  0  0  0  0
    1.8544    5.2438    8.8173 N   0  0  0  0  0  0  0  0  0  0  0  0
    2.7503    5.0996    9.8333 C   0  0  0  0  0  3  0  0  0  0  0  0
    4.0610    6.7256   11.2075 C   0  0  0  0  0  0  0  0  0  0  0  0
    2.4717    7.3056    9.3679 C   0  0  0  0  0  0  0  0  0  0  0  0
    1.6590    6.5776    8.4976 C   0  0  0  0  0  0  0  0  0  0  0  0
    1.1821    4.1528    8.1311 C   0  0  0  0  0  0  0  0  0  0  0  0
    2.3362    3.2601   12.1892 C   0  0  0  0  0  2  0  0  0  0  0  0
    3.1701    1.9703    9.6687 C   0  0  0  0  0  2  0  0  0  0  0  0
    5.1002    3.4976   11.1281 C   0  0  0  0  0  2  0  0  0  0  0  0
    4.1126    5.8723   11.8817 H   0  0  0  0  0  0  0  0  0  0  0  0
    1.1565    3.3148    8.8251 H   0  0  0  0  0  0  0  0  0  0  0  0
    3.6365    7.5622   11.7693 H   0  0  0  0  0  0  0  0  0  0  0  0
    0.1483    4.4615    7.9559 H   0  0  0  0  0  0  0  0  0  0  0  0
    0.8500    7.2103    7.5623 C   0  0  0  0  0  0  0  0  0  0  0  0
    0.2180    6.6516    6.8838 H   0  0  0  0  0  0  0  0  0  0  0  0
    2.5028    8.6942    9.3385 C   0  0  0  0  0  0  0  0  0  0  0  0
    3.1279    9.2650   10.0133 H   0  0  0  0  0  0  0  0  0  0  0  0
    0.8830    8.5983    7.5295 C   0  0  0  0  0  0  0  0  0  0  0  0
    1.6951    9.3280    8.4034 C   0  0  0  0  0  0  0  0  0  0  0  0
    0.2666    9.1262    6.8122 H   0  0  0  0  0  0  0  0  0  0  0  0
    1.6945   10.4097    8.3501 H   0  0  0  0  0  0  0  0  0  0  0  0
    5.4366    7.0767   10.6636 C   0  0  0  0  0  0  0  0  0  0  0  0
    5.3943    7.9272    9.9805 H   0  0  0  0  0  0  0  0  0  0  0  0
    6.1069    7.3344   11.4861 H   0  0  0  0  0  0  0  0  0  0  0  0
    5.8667    6.2299   10.1274 H   0  0  0  0  0  0  0  0  0  0  0  0
    1.8646    3.7666    6.8291 C   0  0  0  0  0  0  0  0  0  0  0  0
    1.3238    2.9462    6.3531 H   0  0  0  0  0  0  0  0  0  0  0  0
    1.8969    4.6049    6.1301 H   0  0  0  0  0  0  0  0  0  0  0  0
    2.8878    3.4375    7.0156 H   0  0  0  0  0  0  0  0  0  0  0  0
  1 14  1  0  0  0  0
  1 12  1  0  0  0  0
  3 13  1  0  0  0  0
  5  8  1  0  0  0  0
  6  7  1  0  0  0  0
  7  5  1  0  0  0  0
  7  1  1  0  0  0  0
  8 17  1  0  0  0  0
  8 15  1  0  0  0  0
  9  5  1  0  0  0  0
 10  6  1  0  0  0  0
 10  9  2  0  0  0  0
 11  6  1  0  0  0  0
 11 16  1  0  0  0  0
 12  2  1  0  0  0  0
 13  1  1  0  0  0  0
 14  4  1  0  0  0  0
 18 11  1  0  0  0  0
 19 10  1  0  0  0  0
 20 19  1  0  0  0  0
 21  9  1  0  0  0  0
 21 22  1  0  0  0  0
 23 19  2  0  0  0  0
 23 24  1  0  0  0  0
 24 21  2  0  0  0  0
 25 23  1  0  0  0  0
 26 24  1  0  0  0  0
 27  8  1  0  0  0  0
 27 29  1  0  0  0  0
 28 27  1  0  0  0  0
 30 27  1  0  0  0  0
 31 34  1  0  0  0  0
 31 11  1  0  0  0  0
 32 31  1  0  0  0  0
 33 31  1  0  0  0  0
M  END
$$$$
