Ni(CO)3[Im(CN)2NMe2] -2337.73258544
 OpenBabel06182400473D

 24 24  0  0  1  0  0  0  0  0999 V2000
    3.3424    3.4256   10.7162 Ni  0  0  0  0  0  0  0  0  0  0  0  0
    1.8963    3.1145   13.2584 O   0  0  0  0  0  1  0  0  0  0  0  0
    2.9101    1.0170    9.0812 O   0  0  0  0  0  1  0  0  0  0  0  0
    6.2509    3.5582   11.1524 O   0  0  0  0  0  1  0  0  0  0  0  0
    3.0904    6.3582   10.1758 N   0  0  0  0  0  0  0  0  0  0  0  0
    1.8703    5.2421    8.8105 N   0  0  0  0  0  0  0  0  0  0  0  0
    2.7296    5.0844    9.8557 C   0  0  1  0  0  3  0  0  0  0  0  0
    4.0119    6.7117   11.2425 C   0  0  0  0  0  0  0  0  0  0  0  0
    2.4918    7.2822    9.3466 C   0  0  0  0  0  0  0  0  0  0  0  0
    1.7126    6.5703    8.4761 C   0  0  0  0  0  0  0  0  0  0  0  0
    1.2039    4.1483    8.1227 C   0  0  0  0  0  0  0  0  0  0  0  0
    2.4575    3.2431   12.2744 C   0  0  0  0  0  2  0  0  0  0  0  0
    3.0517    1.9728    9.6879 C   0  0  0  0  0  2  0  0  0  0  0  0
    5.1230    3.5297   10.9868 C   0  0  0  0  0  2  0  0  0  0  0  0
    3.9505    5.9449   12.0097 H   0  0  0  0  0  0  0  0  0  0  0  0
    0.8054    3.4577    8.8617 H   0  0  0  0  0  0  0  0  0  0  0  0
    5.0325    6.7643   10.8613 H   0  0  0  0  0  0  0  0  0  0  0  0
    3.7292    7.6777   11.6581 H   0  0  0  0  0  0  0  0  0  0  0  0
    0.3914    4.5504    7.5203 H   0  0  0  0  0  0  0  0  0  0  0  0
    1.9088    3.6242    7.4779 H   0  0  0  0  0  0  0  0  0  0  0  0
    0.8824    7.0357    7.4383 C   0  0  0  0  0  0  0  0  0  0  0  0
    2.6809    8.6739    9.4456 C   0  0  0  0  0  0  0  0  0  0  0  0
    0.1974    7.3991    6.5841 N   0  0  0  0  0  0  0  0  0  0  0  0
    2.8489    9.8110    9.5435 N   0  0  0  0  0  0  0  0  0  0  0  0
  1 14  1  0  0  0  0
  1 12  1  0  0  0  0
  3 13  1  0  0  0  0
  5  8  1  0  0  0  0
  6  7  1  0  0  0  0
  7  5  1  0  0  0  0
  7  1  1  6  0  0  0
  8 18  1  0  0  0  0
  8 15  1  0  0  0  0
  9 22  1  0  0  0  0
  9  5  1  0  0  0  0
 10  6  1  0  0  0  0
 10  9  2  0  0  0  0
 11  6  1  0  0  0  0
 11 16  1  0  0  0  0
 12  2  1  0  0  0  0
 13  1  1  0  0  0  0
 14  4  1  0  0  0  0
 17  8  1  0  0  0  0
 19 11  1  0  0  0  0
 20 11  1  0  0  0  0
 21 10  1  0  0  0  0
 22 24  3  0  0  0  0
 23 21  3  0  0  0  0
M  END
$$$$
