Ni(CO)3[Im(CF3)2NMe2] -2827.38790957
 OpenBabel06182400473D

 28 28  0  0  1  0  0  0  0  0999 V2000
    3.3400    3.4357   10.7118 Ni  0  0  0  0  0  0  0  0  0  0  0  0
    1.6263    2.8572   13.0307 O   0  0  0  0  0  1  0  0  0  0  0  0
    3.3381    1.1786    8.8240 O   0  0  0  0  0  1  0  0  0  0  0  0
    6.1689    3.6095   11.5035 O   0  0  0  0  0  1  0  0  0  0  0  0
    3.0955    6.3903   10.1576 N   0  0  0  0  0  0  0  0  0  0  0  0
    1.8157    5.2702    8.8607 N   0  0  0  0  0  0  0  0  0  0  0  0
    2.7018    5.1187    9.8807 C   0  0  1  0  0  3  0  0  0  0  0  0
    4.0340    6.7103   11.2256 C   0  0  0  0  0  0  0  0  0  0  0  0
    2.5021    7.3083    9.3114 C   0  0  0  0  0  0  0  0  0  0  0  0
    1.6872    6.5938    8.4833 C   0  0  0  0  0  0  0  0  0  0  0  0
    1.1006    4.1488    8.2648 C   0  0  0  0  0  0  0  0  0  0  0  0
    2.2891    3.0852   12.1310 C   0  0  0  0  0  2  0  0  0  0  0  0
    3.3055    2.0722    9.5330 C   0  0  0  0  0  2  0  0  0  0  0  0
    5.0683    3.5833   11.2033 C   0  0  0  0  0  2  0  0  0  0  0  0
    4.0132    5.8820   11.9272 H   0  0  0  0  0  0  0  0  0  0  0  0
    1.0854    3.3518    9.0017 H   0  0  0  0  0  0  0  0  0  0  0  0
    5.0415    6.8304   10.8284 H   0  0  0  0  0  0  0  0  0  0  0  0
    3.7276    7.6216   11.7326 H   0  0  0  0  0  0  0  0  0  0  0  0
    0.0808    4.4397    8.0266 H   0  0  0  0  0  0  0  0  0  0  0  0
    1.6063    3.8059    7.3626 H   0  0  0  0  0  0  0  0  0  0  0  0
    0.7492    6.9643    7.3743 C   0  0  0  0  0  0  0  0  0  0  0  0
    2.8002    8.7686    9.4709 C   0  0  0  0  0  0  0  0  0  0  0  0
    0.8305    8.2308    7.0022 F   0  0  0  0  0  0  0  0  0  0  0  0
    0.9907    6.2090    6.2884 F   0  0  0  0  0  0  0  0  0  0  0  0
   -0.5273    6.7300    7.7347 F   0  0  0  0  0  0  0  0  0  0  0  0
    2.2737    9.5311    8.5272 F   0  0  0  0  0  0  0  0  0  0  0  0
    2.3411    9.2181   10.6549 F   0  0  0  0  0  0  0  0  0  0  0  0
    4.1283    8.9773    9.4652 F   0  0  0  0  0  0  0  0  0  0  0  0
  1 14  1  0  0  0  0
  1 12  1  0  0  0  0
  3 13  1  0  0  0  0
  5  8  1  0  0  0  0
  6  7  1  0  0  0  0
  7  5  1  0  0  0  0
  7  1  1  6  0  0  0
  8 18  1  0  0  0  0
  8 15  1  0  0  0  0
  9 22  1  0  0  0  0
  9  5  1  0  0  0  0
 10  6  1  0  0  0  0
 10  9  2  0  0  0  0
 11  6  1  0  0  0  0
 11 16  1  0  0  0  0
 12  2  1  0  0  0  0
 13  1  1  0  0  0  0
 14  4  1  0  0  0  0
 17  8  1  0  0  0  0
 19 11  1  0  0  0  0
 20 11  1  0  0  0  0
 21 25  1  0  0  0  0
 21 10  1  0  0  0  0
 22 27  1  0  0  0  0
 23 21  1  0  0  0  0
 24 21  1  0  0  0  0
 26 22  1  0  0  0  0
 28 22  1  0  0  0  0
M  END
$$$$
