Ni(CO)3[ImN(CH=CH2)Me] -2191.34818224
 OpenBabel06182400473D

 23 23  0  0  1  0  0  0  0  0999 V2000
    3.3652    3.3988   10.6742 Ni  0  0  0  0  0  0  0  0  0  0  0  0
    1.1090    2.3040   12.2117 O   0  0  0  0  0  1  0  0  0  0  0  0
    4.2746    1.6003    8.5314 O   0  0  0  0  0  1  0  0  0  0  0  0
    5.6083    3.6829   12.5515 O   0  0  0  0  0  1  0  0  0  0  0  0
    3.2586    6.3465   10.0139 N   0  0  0  0  0  0  0  0  0  0  0  0
    1.7564    5.2739    8.9352 N   0  0  0  0  0  0  0  0  0  0  0  0
    2.7729    5.0943    9.8398 C   0  0  2  0  0  3  0  0  0  0  0  0
    4.3613    6.6856   10.8921 C   0  0  0  0  0  0  0  0  0  0  0  0
    2.5761    7.2754    9.2509 C   0  0  0  0  0  0  0  0  0  0  0  0
    1.6290    6.6034    8.5699 C   0  0  0  0  0  0  0  0  0  0  0  0
    1.9749    2.7280   11.6008 C   0  0  0  0  0  2  0  0  0  0  0  0
    3.9062    2.2986    9.3557 C   0  0  0  0  0  2  0  0  0  0  0  0
    4.7377    3.6206   11.8135 C   0  0  0  0  0  2  0  0  0  0  0  0
    4.1210    6.4192   11.9203 H   0  0  0  0  0  0  0  0  0  0  0  0
    2.8211    8.3234    9.2586 H   0  0  0  0  0  0  0  0  0  0  0  0
    0.8919    6.9542    7.8713 H   0  0  0  0  0  0  0  0  0  0  0  0
    5.2629    6.1563   10.5874 H   0  0  0  0  0  0  0  0  0  0  0  0
    4.5379    7.7584   10.8318 H   0  0  0  0  0  0  0  0  0  0  0  0
    0.9643    4.2163    8.4603 C   0  0  0  0  0  0  0  0  0  0  0  0
    1.2582    3.2704    8.8942 H   0  0  0  0  0  0  0  0  0  0  0  0
   -0.0299    4.3240    7.5877 C   0  0  0  0  0  0  0  0  0  0  0  0
   -0.3405    5.2598    7.1413 H   0  0  0  0  0  0  0  0  0  0  0  0
   -0.5704    3.4347    7.2960 H   0  0  0  0  0  0  0  0  0  0  0  0
  1 11  1  0  0  0  0
  1 13  1  0  0  0  0
  3 12  1  0  0  0  0
  5  8  1  0  0  0  0
  6  7  1  0  0  0  0
  7  5  1  0  0  0  0
  7  1  1  1  0  0  0
  8 14  1  0  0  0  0
  9 15  1  0  0  0  0
  9  5  1  0  0  0  0
 10  6  1  0  0  0  0
 10  9  2  0  0  0  0
 11  2  1  0  0  0  0
 12  1  1  0  0  0  0
 13  4  1  0  0  0  0
 16 10  1  0  0  0  0
 17  8  1  0  0  0  0
 18  8  1  0  0  0  0
 19 20  1  0  0  0  0
 19  6  1  0  0  0  0
 21 19  2  0  0  0  0
 22 21  1  0  0  0  0
 23 21  1  0  0  0  0
M  END
$$$$
