Ni(CO)3[sImNMe2] -2154.47441470
 OpenBabel06182400473D

 24 24  0  0  0  0  0  0  0  0999 V2000
    3.3132    3.3875   10.7538 Ni  0  0  0  0  0  0  0  0  0  0  0  0
    2.2235    3.4873   13.4825 O   0  0  0  0  0  1  0  0  0  0  0  0
    2.4809    0.8288    9.5699 O   0  0  0  0  0  1  0  0  0  0  0  0
    6.2493    3.3532   10.6284 O   0  0  0  0  0  1  0  0  0  0  0  0
    3.1440    6.2925   10.1862 N   0  0  0  0  0  0  0  0  0  0  0  0
    1.8726    5.2053    8.8181 N   0  0  0  0  0  0  0  0  0  0  0  0
    2.7215    5.0579    9.8519 C   0  0  0  0  0  3  0  0  0  0  0  0
    3.8952    6.6378   11.3647 C   0  0  0  0  0  0  0  0  0  0  0  0
    2.4646    7.3529    9.4472 C   0  0  0  0  0  0  0  0  0  0  0  0
    1.8231    6.5738    8.3086 C   0  0  0  0  0  0  0  0  0  0  0  0
    1.3129    4.1474    8.0192 C   0  0  0  0  0  0  0  0  0  0  0  0
    2.6575    3.4522   12.4267 C   0  0  0  0  0  2  0  0  0  0  0  0
    2.7657    1.8542    9.9874 C   0  0  0  0  0  2  0  0  0  0  0  0
    5.1091    3.3794   10.6919 C   0  0  0  0  0  2  0  0  0  0  0  0
    4.3249    5.7345   11.7891 H   0  0  0  0  0  0  0  0  0  0  0  0
    3.1710    8.1124    9.1069 H   0  0  0  0  0  0  0  0  0  0  0  0
    0.7962    6.8796    8.1001 H   0  0  0  0  0  0  0  0  0  0  0  0
    1.2813    3.2344    8.6051 H   0  0  0  0  0  0  0  0  0  0  0  0
    4.6997    7.3327   11.1091 H   0  0  0  0  0  0  0  0  0  0  0  0
    3.2521    7.1105   12.1165 H   0  0  0  0  0  0  0  0  0  0  0  0
    0.2945    4.4122    7.7241 H   0  0  0  0  0  0  0  0  0  0  0  0
    1.9035    3.9694    7.1130 H   0  0  0  0  0  0  0  0  0  0  0  0
    2.3997    6.6495    7.3782 H   0  0  0  0  0  0  0  0  0  0  0  0
    1.7197    7.8400   10.0891 H   0  0  0  0  0  0  0  0  0  0  0  0
  1 12  1  0  0  0  0
  3 13  1  0  0  0  0
  4 14  1  0  0  0  0
  5  8  1  0  0  0  0
  6  7  1  0  0  0  0
  7  5  1  0  0  0  0
  7  1  1  0  0  0  0
  8 15  1  0  0  0  0
  8 20  1  0  0  0  0
  9 24  1  0  0  0  0
  9  5  1  0  0  0  0
 10  6  1  0  0  0  0
 10  9  1  0  0  0  0
 11 18  1  0  0  0  0
 11  6  1  0  0  0  0
 12  2  1  0  0  0  0
 13  1  1  0  0  0  0
 14  1  1  0  0  0  0
 16  9  1  0  0  0  0
 17 10  1  0  0  0  0
 19  8  1  0  0  0  0
 21 11  1  0  0  0  0
 22 11  1  0  0  0  0
 23 10  1  0  0  0  0
M  END
$$$$
