Ni(CO)3[Py[a]ImNBut2] -2385.52021284
 OpenBabel06182400473D

 34 35  0  0  1  0  0  0  0  0999 V2000
   15.8113    3.9341   -5.5083 C   0  0  2  0  0  3  0  0  0  0  0  0
   16.8273    2.1076   -6.4820 C   0  0  0  0  0  0  0  0  0  0  0  0
   17.6544    2.5910   -5.5135 C   0  0  0  0  0  0  0  0  0  0  0  0
   19.0006    3.9051   -3.4649 C   0  0  0  0  0  0  0  0  0  0  0  0
   19.4084    4.5134   -2.6563 H   0  0  0  0  0  0  0  0  0  0  0  0
   18.9326    2.8783   -3.0991 H   0  0  0  0  0  0  0  0  0  0  0  0
   17.6345    4.4785   -3.8390 C   0  0  0  0  0  0  0  0  0  0  0  0
   16.7206    4.3867   -2.6176 C   0  0  0  0  0  0  0  0  0  0  0  0
   16.6699    3.3553   -2.2606 H   0  0  0  0  0  0  0  0  0  0  0  0
   15.7112    4.7155   -2.8535 H   0  0  0  0  0  0  0  0  0  0  0  0
   17.8296    5.9138   -4.3261 C   0  0  0  0  0  0  0  0  0  0  0  0
   16.8936    6.3437   -4.6750 H   0  0  0  0  0  0  0  0  0  0  0  0
   18.5461    5.9388   -5.1506 H   0  0  0  0  0  0  0  0  0  0  0  0
   15.7053    2.9473   -6.4590 N   0  0  0  0  0  0  0  0  0  0  0  0
   17.0263    3.6797   -4.9477 N   0  0  0  0  0  0  0  0  0  0  0  0
   18.2187    6.5298   -3.5128 H   0  0  0  0  0  0  0  0  0  0  0  0
   17.1156    5.0107   -1.8134 H   0  0  0  0  0  0  0  0  0  0  0  0
   11.9356    3.7383   -4.4995 O   0  0  0  0  0  1  0  0  0  0  0  0
   12.8642    4.3193   -4.8223 C   0  0  0  0  0  2  0  0  0  0  0  0
   14.3194    5.2804   -5.2711 Ni  0  0  0  0  0  0  0  0  0  0  0  0
   14.4713    6.5680   -4.0248 C   0  0  0  0  0  2  0  0  0  0  0  0
   14.1738    6.1305   -6.8519 C   0  0  0  0  0  2  0  0  0  0  0  0
   14.4461    7.4288   -3.2734 O   0  0  0  0  0  1  0  0  0  0  0  0
   14.0849    6.7117   -7.8309 O   0  0  0  0  0  1  0  0  0  0  0  0
   19.7089    3.9477   -4.2950 H   0  0  0  0  0  0  0  0  0  0  0  0
   18.6182    2.2351   -5.2068 H   0  0  0  0  0  0  0  0  0  0  0  0
   14.6567    2.7333   -7.3302 C   0  0  0  0  0  0  0  0  0  0  0  0
   13.8357    3.4276   -7.2418 H   0  0  0  0  0  0  0  0  0  0  0  0
   16.8824    1.0329   -7.4069 C   0  0  0  0  0  0  0  0  0  0  0  0
   17.7547    0.3925   -7.4137 H   0  0  0  0  0  0  0  0  0  0  0  0
   15.8415    0.8382   -8.2559 C   0  0  0  0  0  0  0  0  0  0  0  0
   15.8609    0.0250   -8.9701 H   0  0  0  0  0  0  0  0  0  0  0  0
   14.7085    1.7104   -8.2109 C   0  0  0  0  0  0  0  0  0  0  0  0
   13.8757    1.5610   -8.8843 H   0  0  0  0  0  0  0  0  0  0  0  0
  1 20  1  1  0  0  0
  1 15  1  0  0  0  0
  2 14  1  0  0  0  0
  2  3  2  0  0  0  0
  3 26  1  0  0  0  0
  3 15  1  0  0  0  0
  4  6  1  0  0  0  0
  4  5  1  0  0  0  0
  7  4  1  0  0  0  0
  7  8  1  0  0  0  0
  8  9  1  0  0  0  0
  8 17  1  0  0  0  0
 10  8  1  0  0  0  0
 11  7  1  0  0  0  0
 11 16  1  0  0  0  0
 12 11  1  0  0  0  0
 13 11  1  0  0  0  0
 14  1  1  0  0  0  0
 15  7  1  0  0  0  0
 19 18  1  0  0  0  0
 20 19  1  0  0  0  0
 20 21  1  0  0  0  0
 21 23  1  0  0  0  0
 22 20  1  0  0  0  0
 24 22  1  0  0  0  0
 25  4  1  0  0  0  0
 27 28  1  0  0  0  0
 27 14  1  0  0  0  0
 29  2  1  0  0  0  0
 30 29  1  0  0  0  0
 31 33  1  0  0  0  0
 31 29  2  0  0  0  0
 32 31  1  0  0  0  0
 33 27  2  0  0  0  0
 34 33  1  0  0  0  0
M  END
$$$$
