Ni(CO)3[Im(CO2Me)2ImNMe2] -2609.02764395
 OpenBabel06182400473D

 34 34  0  0  1  0  0  0  0  0999 V2000
    3.3651    7.6220    7.0245 O   0  0  0  0  0  0  0  0  0  0  0  0
    3.3178    6.8048    4.9344 O   0  0  0  0  0  0  0  0  0  0  0  0
    2.3722    5.2109   10.1207 O   0  0  0  0  0  0  0  0  0  0  0  0
    4.1295    5.4175    8.7404 O   0  0  0  0  0  0  0  0  0  0  0  0
    1.1680    5.0751    5.7689 N   0  0  0  0  0  0  0  0  0  0  0  0
    1.0587    4.0657    7.6582 N   0  0  0  0  0  0  0  0  0  0  0  0
    0.5030    4.0790    6.4152 C   0  0  2  0  0  3  0  0  0  0  0  0
    0.8202    5.5188    4.4287 C   0  0  0  0  0  0  0  0  0  0  0  0
    2.1310    5.6504    6.5762 C   0  0  0  0  0  0  0  0  0  0  0  0
    2.9948    6.7964    6.2327 C   0  0  0  0  0  0  0  0  0  0  0  0
    4.1442    7.8948    4.5141 C   0  0  0  0  0  0  0  0  0  0  0  0
    0.6691    3.1277    8.7003 C   0  0  0  0  0  0  0  0  0  0  0  0
    2.0620    5.0016    7.7754 C   0  0  0  0  0  0  0  0  0  0  0  0
    2.8441    5.2233    9.0120 C   0  0  0  0  0  0  0  0  0  0  0  0
    4.9492    5.7821    9.8548 C   0  0  0  0  0  0  0  0  0  0  0  0
    5.9515    5.8963    9.4517 H   0  0  0  0  0  0  0  0  0  0  0  0
    4.2812    7.7611    3.4444 H   0  0  0  0  0  0  0  0  0  0  0  0
    4.5998    6.7212   10.2836 H   0  0  0  0  0  0  0  0  0  0  0  0
    4.9255    5.0028   10.6162 H   0  0  0  0  0  0  0  0  0  0  0  0
    3.6563    8.8463    4.7253 H   0  0  0  0  0  0  0  0  0  0  0  0
    5.1034    7.8620    5.0303 H   0  0  0  0  0  0  0  0  0  0  0  0
    0.7374    6.6041    4.4064 H   0  0  0  0  0  0  0  0  0  0  0  0
   -0.1391    5.0737    4.1814 H   0  0  0  0  0  0  0  0  0  0  0  0
    1.5750    5.2027    3.7101 H   0  0  0  0  0  0  0  0  0  0  0  0
    0.8880    3.5627    9.6709 H   0  0  0  0  0  0  0  0  0  0  0  0
    1.2048    2.1848    8.5814 H   0  0  0  0  0  0  0  0  0  0  0  0
   -0.3979    2.9471    8.6079 H   0  0  0  0  0  0  0  0  0  0  0  0
   -0.8929    2.8846    5.6648 Ni  0  0  0  0  0  0  0  0  0  0  0  0
   -0.4043    2.4050    3.9995 C   0  0  0  0  0  2  0  0  0  0  0  0
   -2.4505    3.7845    5.6803 C   0  0  0  0  0  2  0  0  0  0  0  0
   -1.0578    1.3517    6.5950 C   0  0  0  0  0  2  0  0  0  0  0  0
   -0.1070    2.0591    2.9527 O   0  0  0  0  0  1  0  0  0  0  0  0
   -3.4422    4.3492    5.6951 O   0  0  0  0  0  1  0  0  0  0  0  0
   -1.1983    0.3479    7.1212 O   0  0  0  0  0  1  0  0  0  0  0  0
  2 10  1  0  0  0  0
  4 14  1  0  0  0  0
  4 15  1  0  0  0  0
  5  7  1  0  0  0  0
  5  9  1  0  0  0  0
  6 13  1  0  0  0  0
  6 12  1  0  0  0  0
  7 28  1  6  0  0  0
  7  6  1  0  0  0  0
  8  5  1  0  0  0  0
  9 13  2  0  0  0  0
 10  9  1  0  0  0  0
 10  1  2  0  0  0  0
 11 20  1  0  0  0  0
 11  2  1  0  0  0  0
 11 21  1  0  0  0  0
 12 25  1  0  0  0  0
 13 14  1  0  0  0  0
 14  3  2  0  0  0  0
 15 18  1  0  0  0  0
 15 19  1  0  0  0  0
 16 15  1  0  0  0  0
 17 11  1  0  0  0  0
 22  8  1  0  0  0  0
 23  8  1  0  0  0  0
 24  8  1  0  0  0  0
 26 12  1  0  0  0  0
 27 12  1  0  0  0  0
 28 30  1  0  0  0  0
 28 31  1  0  0  0  0
 29 28  1  0  0  0  0
 30 33  1  0  0  0  0
 31 34  1  0  0  0  0
 32 29  1  0  0  0  0
M  END
$$$$
