Ni(CO)3[1,2,4-TriazNMe2] -2169.30392351
 OpenBabel06182400473D

 21 21  0  0  1  0  0  0  0  0999 V2000
    3.3608    3.3557   10.7415 Ni  0  0  0  0  0  0  0  0  0  0  0  0
    2.3365    3.3383   13.4989 O   0  0  0  0  0  1  0  0  0  0  0  0
    2.4054    0.9119    9.4170 O   0  0  0  0  0  1  0  0  0  0  0  0
    6.3005    3.3378   10.6380 O   0  0  0  0  0  1  0  0  0  0  0  0
    3.0021    6.2959   10.2384 N   0  0  0  0  0  0  0  0  0  0  0  0
    1.9481    5.2005    8.7861 N   0  0  0  0  0  0  0  0  0  0  0  0
    2.7433    5.0238    9.8848 C   0  0  1  0  0  3  0  0  0  0  0  0
    3.8093    6.7428   11.3511 C   0  0  0  0  0  0  0  0  0  0  0  0
    1.7892    6.5368    8.5620 C   0  0  0  0  0  0  0  0  0  0  0  0
    1.3663    4.1416    7.9864 C   0  0  0  0  0  0  0  0  0  0  0  0
    2.7398    3.3546   12.4314 C   0  0  0  0  0  2  0  0  0  0  0  0
    2.7562    1.8846    9.9035 C   0  0  0  0  0  2  0  0  0  0  0  0
    5.1603    3.3543   10.6845 C   0  0  0  0  0  2  0  0  0  0  0  0
    4.1757    5.8636   11.8735 H   0  0  0  0  0  0  0  0  0  0  0  0
    1.2059    6.9497    7.7551 H   0  0  0  0  0  0  0  0  0  0  0  0
    0.7158    3.5215    8.6010 H   0  0  0  0  0  0  0  0  0  0  0  0
    4.6469    7.3347   10.9823 H   0  0  0  0  0  0  0  0  0  0  0  0
    3.2032    7.3513   12.0221 H   0  0  0  0  0  0  0  0  0  0  0  0
    0.7823    4.5909    7.1841 H   0  0  0  0  0  0  0  0  0  0  0  0
    2.1510    3.5214    7.5563 H   0  0  0  0  0  0  0  0  0  0  0  0
    2.4277    7.2384    9.4417 N   0  0  0  0  0  0  0  0  0  0  0  0
  1 11  1  0  0  0  0
  3 12  1  0  0  0  0
  4 13  1  0  0  0  0
  5  8  1  0  0  0  0
  6  7  1  0  0  0  0
  7  5  1  0  0  0  0
  7  1  1  6  0  0  0
  8 14  1  0  0  0  0
  8 18  1  0  0  0  0
  9  6  1  0  0  0  0
  9 21  2  0  0  0  0
 10 16  1  0  0  0  0
 10  6  1  0  0  0  0
 11  2  1  0  0  0  0
 12  1  1  0  0  0  0
 13  1  1  0  0  0  0
 15  9  1  0  0  0  0
 17  8  1  0  0  0  0
 19 10  1  0  0  0  0
 20 10  1  0  0  0  0
 21  5  1  0  0  0  0
M  END
$$$$
