Ni(CO)3[sImNH2] -2075.85979317
 OpenBabel06182400473D

 18 18  0  0  0  0  0  0  0  0999 V2000
    3.3485    3.4087   10.7827 Ni  0  0  0  0  0  0  0  0  0  0  0  0
    2.4649    3.5865   13.5803 O   0  0  0  0  0  1  0  0  0  0  0  0
    2.0858    1.1168    9.4399 O   0  0  0  0  0  1  0  0  0  0  0  0
    6.2763    3.2840   10.5551 O   0  0  0  0  0  1  0  0  0  0  0  0
    3.0608    6.3035   10.2497 N   0  0  0  0  0  0  0  0  0  0  0  0
    2.0143    5.1513    8.7784 N   0  0  0  0  0  0  0  0  0  0  0  0
    2.7700    5.0478    9.8808 C   0  0  0  0  0  3  0  0  0  0  0  0
    2.3615    7.3284    9.4772 C   0  0  0  0  0  0  0  0  0  0  0  0
    1.8953    6.5143    8.2641 C   0  0  0  0  0  0  0  0  0  0  0  0
    2.8141    3.5129   12.4952 C   0  0  0  0  0  2  0  0  0  0  0  0
    2.5768    2.0074    9.9612 C   0  0  0  0  0  2  0  0  0  0  0  0
    5.1392    3.3270   10.6496 C   0  0  0  0  0  2  0  0  0  0  0  0
    3.0230    8.1502    9.2028 H   0  0  0  0  0  0  0  0  0  0  0  0
    0.8721    6.7475    7.9693 H   0  0  0  0  0  0  0  0  0  0  0  0
    2.5525    6.6611    7.4008 H   0  0  0  0  0  0  0  0  0  0  0  0
    1.5159    7.7313   10.0440 H   0  0  0  0  0  0  0  0  0  0  0  0
    1.7876    4.3407    8.2315 H   0  0  0  0  0  0  0  0  0  0  0  0
    3.5024    6.4897   11.1318 H   0  0  0  0  0  0  0  0  0  0  0  0
  1 10  1  0  0  0  0
  3 11  1  0  0  0  0
  4 12  1  0  0  0  0
  5 18  1  0  0  0  0
  6  7  1  0  0  0  0
  7  5  1  0  0  0  0
  7  1  1  0  0  0  0
  8 16  1  0  0  0  0
  8  5  1  0  0  0  0
  9  6  1  0  0  0  0
  9  8  1  0  0  0  0
 10  2  1  0  0  0  0
 11  1  1  0  0  0  0
 12  1  1  0  0  0  0
 13  8  1  0  0  0  0
 14  9  1  0  0  0  0
 15  9  1  0  0  0  0
 17  6  1  0  0  0  0
M  END
$$$$
