Ni(CO)3[ImN(CF3)2] -2748.75401682
 OpenBabel06182400473D

 22 22  0  0  1  0  0  0  0  0999 V2000
    3.4124    3.3859   10.6816 Ni  0  0  0  0  0  0  0  0  0  0  0  0
    1.6674    2.8491   12.9878 O   0  0  0  0  0  1  0  0  0  0  0  0
    3.3962    1.0240    8.9202 O   0  0  0  0  0  1  0  0  0  0  0  0
    6.2099    3.4250   11.6054 O   0  0  0  0  0  1  0  0  0  0  0  0
    3.1033    6.3488   10.1592 N   0  0  0  0  0  0  0  0  0  0  0  0
    1.8063    5.2396    8.9111 N   0  0  0  0  0  0  0  0  0  0  0  0
    2.7703    5.0527    9.8662 C   0  0  2  0  0  3  0  0  0  0  0  0
    4.1044    6.7300   11.1157 C   0  0  0  0  0  0  0  0  0  0  0  0
    2.3917    7.2849    9.4091 C   0  0  0  0  0  0  0  0  0  0  0  0
    1.5710    6.5831    8.6194 C   0  0  0  0  0  0  0  0  0  0  0  0
    1.1155    4.1743    8.2403 C   0  0  0  0  0  0  0  0  0  0  0  0
    2.3400    3.0626   12.0930 C   0  0  0  0  0  2  0  0  0  0  0  0
    3.3669    1.9700    9.5544 C   0  0  0  0  0  2  0  0  0  0  0  0
    5.1322    3.4761   11.2394 C   0  0  0  0  0  2  0  0  0  0  0  0
    2.5310    8.3446    9.5139 H   0  0  0  0  0  0  0  0  0  0  0  0
    0.8475    6.9049    7.8939 H   0  0  0  0  0  0  0  0  0  0  0  0
    1.9316    3.4842    7.4561 F   0  0  0  0  0  0  0  0  0  0  0  0
    0.1622    4.7076    7.4720 F   0  0  0  0  0  0  0  0  0  0  0  0
    0.5421    3.3480    9.0965 F   0  0  0  0  0  0  0  0  0  0  0  0
    3.8757    6.1962   12.3019 F   0  0  0  0  0  0  0  0  0  0  0  0
    4.0808    8.0590   11.2439 F   0  0  0  0  0  0  0  0  0  0  0  0
    5.3183    6.3815   10.7130 F   0  0  0  0  0  0  0  0  0  0  0  0
  1 14  1  0  0  0  0
  1 12  1  0  0  0  0
  3 13  1  0  0  0  0
  5  8  1  0  0  0  0
  6  7  1  0  0  0  0
  7  5  1  0  0  0  0
  7  1  1  1  0  0  0
  8 21  1  0  0  0  0
  8 20  1  0  0  0  0
  9 15  1  0  0  0  0
  9  5  1  0  0  0  0
 10  6  1  0  0  0  0
 10  9  2  0  0  0  0
 11  6  1  0  0  0  0
 11 19  1  0  0  0  0
 12  2  1  0  0  0  0
 13  1  1  0  0  0  0
 14  4  1  0  0  0  0
 16 10  1  0  0  0  0
 17 11  1  0  0  0  0
 18 11  1  0  0  0  0
 22  8  1  0  0  0  0
M  END
$$$$
