Ni(CO)3[PerNMe2] -2460.54329415
 OpenBabel06182400473D

 34 36  0  0  0  0  0  0  0  0999 V2000
    0.0303   11.9624    2.1494 O   0  0  0  0  0  1  0  0  0  0  0  0
    0.3831   11.5459    1.1469 C   0  0  0  0  0  2  0  0  0  0  0  0
    1.0593   10.9947   -0.4347 Ni  0  0  0  0  0  0  0  0  0  0  0  0
    2.8193   11.3500   -0.2378 C   0  0  0  0  0  2  0  0  0  0  0  0
    0.3504   11.9040   -1.8115 C   0  0  0  0  0  2  0  0  0  0  0  0
    3.9047   11.6511   -0.0529 O   0  0  0  0  0  1  0  0  0  0  0  0
   -0.0983   12.4871   -2.6843 O   0  0  0  0  0  1  0  0  0  0  0  0
    2.6830    4.6298   -1.5633 C   0  0  0  0  0  0  0  0  0  0  0  0
    2.7246    6.0287   -1.6992 C   0  0  0  0  0  0  0  0  0  0  0  0
    1.7013    6.7982   -1.1801 C   0  0  0  0  0  0  0  0  0  0  0  0
    0.6265    6.1750   -0.5093 C   0  0  0  0  0  0  0  0  0  0  0  0
    0.5881    4.7615   -0.3750 C   0  0  0  0  0  0  0  0  0  0  0  0
    1.6476    4.0027   -0.9227 C   0  0  0  0  0  0  0  0  0  0  0  0
   -0.4141    6.9696    0.0190 C   0  0  0  0  0  0  0  0  0  0  0  0
    0.7517    9.0033   -0.6927 C   0  0  0  0  0  3  0  0  0  0  0  0
   -1.4692    6.3686    0.6780 C   0  0  0  0  0  0  0  0  0  0  0  0
   -1.5030    4.9690    0.8093 C   0  0  0  0  0  0  0  0  0  0  0  0
   -0.5084    4.1774    0.2993 C   0  0  0  0  0  0  0  0  0  0  0  0
   -0.5475    3.1001    0.4073 H   0  0  0  0  0  0  0  0  0  0  0  0
   -2.3390    4.5176    1.3304 H   0  0  0  0  0  0  0  0  0  0  0  0
    3.4960    4.0447   -1.9768 H   0  0  0  0  0  0  0  0  0  0  0  0
    3.5674    6.4803   -2.2001 H   0  0  0  0  0  0  0  0  0  0  0  0
    1.6281    2.9238   -0.8258 H   0  0  0  0  0  0  0  0  0  0  0  0
   -2.2684    6.9532    1.1078 H   0  0  0  0  0  0  0  0  0  0  0  0
    1.6815    8.2015   -1.2711 N   0  0  0  0  0  0  0  0  0  0  0  0
   -0.3104    8.3629   -0.1417 N   0  0  0  0  0  0  0  0  0  0  0  0
    2.7341    8.8041   -2.0742 C   0  0  0  0  0  0  0  0  0  0  0  0
    2.4877    9.8471   -2.2328 H   0  0  0  0  0  0  0  0  0  0  0  0
   -1.4550    9.1437    0.3014 C   0  0  0  0  0  0  0  0  0  0  0  0
   -1.3384   10.1574   -0.0627 H   0  0  0  0  0  0  0  0  0  0  0  0
   -2.3651    8.7130   -0.1203 H   0  0  0  0  0  0  0  0  0  0  0  0
   -1.5325    9.1521    1.3916 H   0  0  0  0  0  0  0  0  0  0  0  0
    3.7053    8.7278   -1.5788 H   0  0  0  0  0  0  0  0  0  0  0  0
    2.7817    8.2955   -3.0390 H   0  0  0  0  0  0  0  0  0  0  0  0
  2  1  1  0  0  0  0
  3  4  1  0  0  0  0
  3  2  1  0  0  0  0
  4  6  1  0  0  0  0
  5  3  1  0  0  0  0
  7  5  1  0  0  0  0
  8 13  1  0  0  0  0
  9  8  2  0  0  0  0
  9 10  1  0  0  0  0
 10 11  2  0  0  0  0
 11 12  1  0  0  0  0
 11 14  1  0  0  0  0
 12 18  1  0  0  0  0
 13 23  1  0  0  0  0
 13 12  2  0  0  0  0
 14 16  2  0  0  0  0
 15  3  1  0  0  0  0
 15 26  1  0  0  0  0
 16 17  1  0  0  0  0
 16 24  1  0  0  0  0
 17 20  1  0  0  0  0
 18 19  1  0  0  0  0
 18 17  2  0  0  0  0
 21  8  1  0  0  0  0
 22  9  1  0  0  0  0
 25 10  1  0  0  0  0
 25 15  1  0  0  0  0
 26 14  1  0  0  0  0
 26 29  1  0  0  0  0
 27 33  1  0  0  0  0
 27 25  1  0  0  0  0
 28 27  1  0  0  0  0
 29 32  1  0  0  0  0
 30 29  1  0  0  0  0
 31 29  1  0  0  0  0
 34 27  1  0  0  0  0
M  END
$$$$
